CRYSTAL
# Primitive lattice vectors in Angstrom
PRIMVEC
 4.03893001765391 0.00000000000000 0.00000000000000
 0.00000000000000 4.03893001765391 0.00000000000000
 0.00000000000000 0.00000000000000 4.03893001765391
# Cartesian coordinates in Angstrom.
PRIMCOORD
 4 1
13     0.00000000000000     0.00000000000000     0.00000000000000
13     0.00000000000000     2.01946500882695     2.01946500882695
13     2.01946500882695     0.00000000000000     2.01946500882695
13     2.01946500882695     2.01946500882695     0.00000000000000