CRYSTAL
# Primitive lattice vectors in Angstrom
PRIMVEC
 2.01779047425301 -2.01779047425301 0.00000000000000
 2.01779047425301 2.01779047425301 0.00000000000000
 0.00000000000000 0.00000000000000 28.24906663954219
# Cartesian coordinates in Angstrom.
PRIMCOORD
 9 1
Al     0.00000000000000     0.00000000000000     0.00000000000000
Al     0.00000000000000     2.01779047425301     2.01779047425301
Al     0.00000000000000     0.00000000000000     4.03558094850603
Al     0.00000000000000     2.01779047425301     6.05337142275904
Al     0.00000000000000     0.00000000000000     8.07116189701205
Al     0.00000000000000     2.01779047425301    -2.01779047425301
Al     0.00000000000000     0.00000000000000    -4.03558094850603
Al     0.00000000000000     2.01779047425301    -6.05337142275904
Al     0.00000000000000     0.00000000000000    -8.07116189701205