CRYSTAL
# Primitive lattice vectors in Angstrom
PRIMVEC
 2.01779047425301 -2.01779047425301 0.00000000000000
 2.01779047425301 2.01779047425301 0.00000000000000
 0.00000000000000 0.00000000000000 20.17790474253013
# Cartesian coordinates in Angstrom.
PRIMCOORD
 5 1
13     0.00000000000000     0.00000000000000     0.00000000000000
13     0.00000000000000     2.01779047425301     2.01779047425301
13     0.00000000000000     0.00000000000000     4.03558094850603
13     0.00000000000000     2.01779047425301    -2.01779047425301
13     0.00000000000000     0.00000000000000    -4.03558094850603